# generated using pymatgen
data_FeS2
_symmetry_space_group_name_H-M   Pnnm
_cell_length_a   4.44069755
_cell_length_b   5.40650212
_cell_length_c   3.38461958
_cell_angle_alpha   90.00000000
_cell_angle_beta   90.00000000
_cell_angle_gamma   90.00000000
_symmetry_Int_Tables_number   58
_chemical_formula_structural   FeS2
_chemical_formula_sum   'Fe2 S4'
_cell_volume   81.26011547
_cell_formula_units_Z   2
loop_
 _symmetry_equiv_pos_site_id
 _symmetry_equiv_pos_as_xyz
  1  'x, y, z'
  2  '-x, -y, -z'
  3  '-x, -y, z'
  4  'x, y, -z'
  5  'x+1/2, -y+1/2, -z+1/2'
  6  '-x+1/2, y+1/2, z+1/2'
  7  '-x+1/2, y+1/2, -z+1/2'
  8  'x+1/2, -y+1/2, z+1/2'
loop_
 _atom_site_type_symbol
 _atom_site_label
 _atom_site_symmetry_multiplicity
 _atom_site_fract_x
 _atom_site_fract_y
 _atom_site_fract_z
 _atom_site_occupancy
  Fe  Fe0  2  0.000000  0.000000  0.000000  1
  S  S1  4  0.206218  0.375173  0.000000  1
